/*--------------------------------*- C++ -*----------------------------------*\
| =========                 |                                                 |
| \\      /  F ield         | OpenFOAM: The Open Source CFD Toolbox           |
|  \\    /   O peration     | Version:  1.6                                   |
|   \\  /    A nd           | Web:      www.OpenFOAM.org                      |
|    \\/     M anipulation  |                                                 |
\*---------------------------------------------------------------------------*/
/*   Windows 32 and 64 bit porting by blueCAPE: http://www.bluecape.com.pt   *\
|  Based on Windows porting (1.5.x v3) by Symscape: http://www.symscape.com/  |
\*---------------------------------------------------------------------------*/
FoamFile
{
    version     2.0;
    format      ascii;
    class       polyBoundaryMesh;
    location    "constant/polyMesh";
    object      boundary;
}
// * * * * * * * * * * * * * * * * * * * * * * * * * * * * * * * * * * * * * //

4
(
    movingWall
    {
        type            wall;
        nFaces          0;
        startFace       370;
    }
    fixedWalls
    {
        type            wall;
        nFaces          40;
        startFace       370;
    }
    frontAndBack
    {
        type            empty;
        nFaces          400;
        startFace       410;
    }
    procBoundary0to1
    {
        type            processor;
        nFaces          20;
        startFace       810;
        myProcNo        0;
        neighbProcNo    1;
    }
)

// ************************************************************************* //
