/*--------------------------------*- C++ -*----------------------------------*\
| =========                 |                                                 |
| \\      /  F ield         | OpenFOAM: The Open Source CFD Toolbox           |
|  \\    /   O peration     | Version:  5                                     |
|   \\  /    A nd           | Web:      www.OpenFOAM.org                      |
|    \\/     M anipulation  |                                                 |
\*---------------------------------------------------------------------------*/
FoamFile
{
    version     2.0;
    format      ascii;
    class       dictionary;
    object      controlDict;
}
// * * * * * * * * * * * * * * * * * * * * * * * * * * * * * * * * * * * * * //

libs    ("libCardiovascularBoundaryCondition.so");

application     pimpleFoam;

startFrom       startTime;

startTime       0;

stopAt          endTime;

endTime         1;

deltaT          1e-3;

writeControl    runTime;

writeInterval   5e-2;

purgeWrite      0;

writeFormat     ascii;

writePrecision   8;

writeCompression off;

timeFormat      general;

timePrecision   6;

runTimeModifiable false;

functions
{
    #includeFunc residuals
    #includeFunc massflowrate
    #includeFunc pressure
}

// ************************************************************************* //
