/*--------------------------------*- C++ -*----------------------------------*\
| =========                 |                                                 |
| \\      /  F ield         | OpenFOAM: The Open Source CFD Toolbox           |
|  \\    /   O peration     | Version:  5                                     |
|   \\  /    A nd           | Web:      www.OpenFOAM.org                      |
|    \\/     M anipulation  |                                                 |
\*---------------------------------------------------------------------------*/
FoamFile
{
    version     2.0;
    format      ascii;
    class       dictionary;
    object      fvSolution;
}
// * * * * * * * * * * * * * * * * * * * * * * * * * * * * * * * * * * * * * //

solvers
{
    Phi
    {
        solver          GAMG;
        smoother        DIC;

        tolerance       1e-06;
        relTol          0.01;
    }
    p
    {
        solver          GAMG;
        smoother        DIC;
        tolerance       1e-6;
        relTol          0.05;
    }

    "(U|sigma)"
    {
        solver          smoothSolver;
        smoother        symGaussSeidel;
        tolerance       1e-6;
        relTol          0.1;
    }

    pFinal
    {
        $p;
        relTol          0;
    }

    "(U|sigma)Final"
    {
        $U;
        relTol          0;
    }
}

PIMPLE
{
    momentumPredictor   off;
    nOuterCorrectors    3;
    nCorrectors         3;
    nNonOrthogonalCorrectors 0;
    pRefCell            0;
    pRefValue           0;
    turbOnFinalIterOnly no;
}

PISO
{
    nCorrectors     2;
    nNonOrthogonalCorrectors 0;
    pRefCell        0;
    pRefValue       0;
}

relaxationFactors
{
    equations
    {
        ".*"   1;
    }
}

potentialFlow
{
    nNonOrthogonalCorrectors 3;
}

// ************************************************************************* //
